&param0
dt        = 1.0d-6  ! stride of time
dx        = 1.0d-2  ! stride of x, y, z direction
tol       = 1.0d-40 ! convergence tolerance of CG method
diff_coef = 1.0d2   ! diffusion coefficient
/
&param1
imax = 64 ! global size for x direction
jmax = 64 ! global size for y direction
kmax = 64 ! global size for z direction
/
&param2
idiv = 2 ! # of division for x direction
jdiv = 1 ! # of division for y direction
kdiv = 1 ! # of division for z direction
! idiv*jdiv*kdiv must equal to total # of processes(np)
! imax/idiv, jmax/jdiv and kmax/kdiv must be an integer
/

&param3
iter_max   = 262144 ! maximum CG method iteration
tstep_max  = 100    ! maximum timestep
freq_write = 100    ! frequency of writing the result, write each tstep_max/freq_write time
/
