&param0
dt   = 1.0d-6 
dx   = 1.0d-8
imax = 4
jmax = 4
kmax = 4
idiv = 2
jdiv = 2
kdiv = 2
/
